Version 4
SHEET 1 880 680
WIRE -144 112 -144 96
WIRE -48 112 -48 96
WIRE 384 128 384 96
WIRE 96 144 64 144
WIRE 240 160 224 160
WIRE 336 160 320 160
WIRE 496 160 480 160
WIRE 96 176 64 176
WIRE -144 208 -144 192
WIRE -48 208 -48 192
WIRE 384 224 384 192
FLAG -48 208 0
FLAG 384 96 Vcc
FLAG -48 96 Vcc
FLAG 64 144 Vcc
FLAG 240 160 Iin
FLAG 320 160 Iin
FLAG -144 208 0
FLAG -144 96 Vee
FLAG 384 224 Vee
FLAG 64 176 Vee
FLAG 496 160 Vst
SYMBOL voltage -48 96 R0
WINDOW 123 0 0 Left 0
WINDOW 39 0 0 Left 0
SYMATTR InstName V1
SYMATTR Value 4.5
SYMBOL 555 384 160 R0
SYMATTR InstName X1
SYMBOL voltage -144 96 R0
WINDOW 123 0 0 Left 0
WINDOW 39 0 0 Left 0
SYMATTR InstName V2
SYMATTR Value -4.5
SYMBOL current_supply 160 160 R0
SYMATTR InstName X2
TEXT -208 -112 Left 2 !.include C:\\Users\\User\\Downloads\\slcj016\\LM393.5_1
TEXT -200 -168 Left 2 !.include C:\\Users\\User\\Downloads\\sloj040\\LF411C.301
TEXT -208 -64 Left 2 !.tran 1m
