Version 4
SHEET 1 3844 680
WIRE 1344 -368 1328 -368
WIRE 1440 -368 1424 -368
WIRE 1456 -368 1440 -368
WIRE 1552 -368 1536 -368
WIRE 1344 -256 1328 -256
WIRE 1440 -256 1424 -256
WIRE 1456 -256 1440 -256
WIRE 1552 -256 1536 -256
WIRE 2080 -240 2064 -240
WIRE 2176 -240 2160 -240
WIRE 2192 -240 2176 -240
WIRE 2288 -240 2272 -240
WIRE -96 -208 -96 -240
WIRE 912 -128 912 -192
WIRE 1232 -128 1232 -192
WIRE 1600 -128 1600 -192
WIRE 1552 -112 1536 -112
WIRE 1968 -112 1968 -176
WIRE 2368 -112 2368 -160
WIRE -96 -96 -96 -128
WIRE 880 -96 848 -96
WIRE 1008 -96 992 -96
WIRE 1200 -96 1168 -96
WIRE 1344 -96 1328 -96
WIRE 1552 -80 1536 -80
WIRE 1728 -80 1696 -80
WIRE 1936 -80 1904 -80
WIRE 2112 -80 2080 -80
WIRE 2336 -80 2304 -80
WIRE 2496 -64 2464 -64
WIRE 912 -48 912 -64
WIRE 1232 -48 1232 -64
WIRE 1552 -48 1536 -48
WIRE 2336 -48 2304 -48
WIRE 1968 -32 1968 -48
WIRE -64 48 -64 16
WIRE 32 48 32 16
WIRE -64 160 -64 128
WIRE 32 160 32 128
FLAG -64 160 0
FLAG 32 160 0
FLAG -64 16 Vcc
FLAG 32 16 Vee
FLAG -96 -96 0
FLAG -96 -240 Vin
FLAG 1552 -256 0
FLAG 1328 -256 Vcc
FLAG 1440 -256 Vth1
FLAG 1552 -368 0
FLAG 1328 -368 Vcc
FLAG 1440 -368 Vth2
FLAG 912 -48 Vee
FLAG 1008 -96 Vpa
FLAG 848 -96 Vin
FLAG 2288 -240 0
FLAG 2064 -240 Vcc
FLAG 2176 -240 Vth3
FLAG 1232 -48 Vee
FLAG 1168 -96 Vpa
FLAG 912 -192 Vcc
FLAG 1232 -192 Vcc
FLAG 1344 -96 Vpd
FLAG 1536 -112 Vpd
FLAG 1536 -80 Vth1
FLAG 1536 -48 Vth2
FLAG 1600 -192 Vcc
FLAG 1728 -80 Vc2
FLAG 1904 -80 Vc2
FLAG 1968 -176 Vcc
FLAG 1968 -32 Vee
FLAG 2112 -80 Vclip
FLAG 2304 -80 Vclip
FLAG 2304 -48 Vth3
FLAG 2368 -160 Vcc
FLAG 2496 -64 Vo7
SYMBOL voltage -64 32 R0
WINDOW 123 0 0 Left 0
WINDOW 39 0 0 Left 0
SYMATTR InstName V1
SYMATTR Value 4.5
SYMBOL voltage 32 32 R0
WINDOW 123 0 0 Left 0
WINDOW 39 0 0 Left 0
SYMATTR InstName V2
SYMATTR Value -4.5
SYMBOL voltage -96 -224 R0
WINDOW 123 0 0 Left 0
WINDOW 39 0 0 Left 0
SYMATTR InstName V3
SYMATTR Value PWL file=heartbeat_slow.pwl
SYMBOL res 1440 -240 R270
WINDOW 0 32 56 VTop 2
WINDOW 3 0 56 VBottom 2
SYMATTR InstName Rvdl1
SYMATTR Value {Rvdl1}
SYMBOL res 1328 -240 R270
WINDOW 0 32 56 VTop 2
WINDOW 3 0 56 VBottom 2
SYMATTR InstName Rvdu1
SYMATTR Value {Rvdu1}
SYMBOL res 1440 -352 R270
WINDOW 0 32 56 VTop 2
WINDOW 3 0 56 VBottom 2
SYMATTR InstName Rvdl2
SYMATTR Value {Rvdl2}
SYMBOL res 1328 -352 R270
WINDOW 0 32 56 VTop 2
WINDOW 3 0 56 VBottom 2
SYMATTR InstName Rvdu2
SYMATTR Value {Rvdu2}
SYMBOL preamp 928 -96 R0
SYMATTR InstName preamp
SYMBOL res 2176 -224 R270
WINDOW 0 32 56 VTop 2
WINDOW 3 0 56 VBottom 2
SYMATTR InstName Rvdl3
SYMATTR Value 47k
SYMBOL res 2064 -224 R270
WINDOW 0 32 56 VTop 2
WINDOW 3 0 56 VBottom 2
SYMATTR InstName Rvdu3
SYMATTR Value 100k
SYMBOL peakdetector_lab7 1264 -96 R0
SYMATTR InstName peak_detector
SYMBOL delay 1616 -96 R0
SYMATTR InstName dual_comparator_RC_delay
SYMBOL differentiator_clipper 2000 -80 R0
SYMATTR InstName differentiator_and_clipper
SYMBOL outputcomparator 2384 -64 R0
SYMATTR InstName output_comparator
TEXT -216 -360 Left 2 !.include C:\\Users\\User\\Downloads\\ZVN3310A.spice.txt
TEXT -200 -416 Left 2 !.include C:\\Users\\User\\Downloads\\slcj016\\LM393.5_1
TEXT -456 -544 Left 2 !.param Rvdu2=100k Rvdl2=100k Rd=2k Cd= 22u Rvdu1=39k Rvdl1=5k Rpdl=56k Cpdl=10u
TEXT -216 184 Left 2 !.tran 3
TEXT -192 -472 Left 2 !.include C:\\Users\\User\\Downloads\\sloj040\\LF411C.301
