Version 4
SHEET 1 1960 692
WIRE -48 -96 -48 -128
WIRE 176 -80 176 -112
WIRE 272 -80 272 -112
WIRE 64 -64 48 -64
WIRE -48 0 -48 -32
WIRE 720 16 720 -16
WIRE 176 32 176 0
WIRE 272 32 272 0
WIRE 1568 96 1568 80
WIRE 720 112 720 96
WIRE 896 112 720 112
WIRE 80 128 80 64
WIRE 720 128 720 112
WIRE 368 144 368 80
WIRE 896 144 896 112
WIRE 1088 144 1088 80
WIRE 1376 144 1376 64
WIRE 1712 144 1712 80
WIRE 32 160 0 160
WIRE 1328 160 1312 160
WIRE 192 176 160 176
WIRE 320 176 304 176
WIRE 464 176 432 176
WIRE 1008 176 992 176
WIRE 1056 176 1008 176
WIRE 1216 176 1184 176
WIRE 1472 176 1440 176
WIRE 1568 176 1568 160
WIRE 1680 176 1568 176
WIRE 1840 176 1808 176
WIRE 1328 192 1312 192
WIRE 1568 192 1568 176
WIRE 672 208 640 208
WIRE 1376 224 1376 208
WIRE 368 240 368 208
WIRE 720 240 720 224
WIRE 896 240 896 208
WIRE 1088 240 1088 208
WIRE 1712 240 1712 208
WIRE 48 256 48 224
WIRE 112 256 112 224
WIRE 1568 288 1568 272
WIRE 528 528 528 496
WIRE 528 640 528 608
FLAG 528 640 0
FLAG 176 32 0
FLAG 272 32 0
FLAG 176 -112 Vcc
FLAG 272 -112 Vee
FLAG 528 496 Vin
FLAG 0 160 Vin
FLAG 192 176 Vpd
FLAG 368 240 0
FLAG 368 80 Vcc
FLAG 304 176 Vpd
FLAG 80 64 Vcc
FLAG 48 256 Vee
FLAG 112 256 0
FLAG -48 -128 Vcc
FLAG 64 -64 Vosc
FLAG 464 176 Vc
FLAG 720 240 0
FLAG 720 -16 Vosc
FLAG 1008 112 Vm
FLAG 1088 80 Vcc
FLAG 1088 240 Vee
FLAG 1216 176 Vb
FLAG 1312 160 Vb
FLAG 1376 64 Vcc
FLAG 1376 224 Vee
FLAG 1312 192 0
FLAG 1472 176 Vl
FLAG 896 240 0
FLAG 896 112 Vm
FLAG -48 0 Vee
FLAG 1568 288 0
FLAG 1568 80 Vl
FLAG 1712 80 Vcc
FLAG 1712 240 Vee
FLAG 1840 176 Vo
FLAG 560 208 Vc
SYMBOL voltage 176 -96 R0
WINDOW 123 0 0 Left 0
WINDOW 39 0 0 Left 0
SYMATTR InstName V1
SYMATTR Value 4.5
SYMBOL voltage 272 -96 R0
WINDOW 123 0 0 Left 0
WINDOW 39 0 0 Left 0
SYMATTR InstName V2
SYMATTR Value -4.5
SYMBOL voltage 528 512 R0
WINDOW 123 0 0 Left 0
WINDOW 39 0 0 Left 0
SYMATTR InstName V3
SYMATTR Value PULSE(0 1 0 5m 5m 1m 1.2)
SYMBOL VolDiv_InvComp 368 176 R0
SYMATTR InstName VolDiv_InvComparator
SYMBOL peak_detector 96 176 R0
SYMATTR InstName PeakDetector
SYMBOL oscillator -32 -64 R0
SYMATTR InstName Oscillator
SYMBOL nmos 672 128 R0
WINDOW 3 56 60 Left 2
SYMATTR Value ZVN3310A
SYMATTR InstName M1
SYMATTR Prefix X
SYMBOL res 704 0 R0
SYMATTR InstName R1
SYMATTR Value 47k
SYMBOL unity_buffer 1120 176 R0
SYMATTR InstName Unity_Buffer
SYMBOL Lowpass 1376 176 R0
SYMATTR InstName Lowpass
SYMBOL diode 912 208 R180
WINDOW 0 24 64 Left 2
WINDOW 3 24 0 Left 2
SYMATTR InstName D1
SYMATTR Value 1N4148
SYMBOL unity_buffer 1744 176 R0
SYMATTR InstName Unity_Buffer1
SYMBOL cap 1552 96 R0
SYMATTR InstName C2
SYMATTR Value 100n
SYMBOL res 1552 176 R0
SYMATTR InstName R3
SYMATTR Value 6.8k
SYMBOL res 656 192 R90
WINDOW 0 0 56 VBottom 2
WINDOW 3 32 56 VTop 2
SYMATTR InstName R2
SYMATTR Value 1k
SYMBOL cap 992 112 R0
SYMATTR InstName C1
SYMATTR Value 10n
TEXT -456 520 Left 2 !.param Rpd=1.3k Cpd=220u Rvdu=39k Rvdl=5k Rpu=1k Rosc=680 Cosc=2.2u
TEXT 168 552 Left 2 !.tran 3
TEXT -456 592 Left 2 !.include C:\\Users\\User\\Downloads\\ZVN4206A.spice.txt
TEXT -456 632 Left 2 !.include C:\\Users\\User\\Downloads\\ZVN3310A.spice.txt
